FoamFile
{
    version     2.0;
    format      ascii;
    class       dictionary;
    location    "system";
    object      fvSolution;
}
solvers{
    "rho.*"{
        solver PCG;
        preconditioner DIC;
        tolerance 0;
        relTol 0;
    }
    p_rgh{
        solver PCG;
        preconditioner DIC;
        tolerance 1e-06;
        relTol 0.01;
    }
    U{
        solver PBiCG;
        preconditioner DILU;
        tolerance 1e-05;
        relTol 0.1;
    }
    h{
        solver PBiCG;
        preconditioner DILU;
        tolerance 1e-05;
        relTol 0.1;
    }
    k{
        solver PBiCG;
        preconditioner DILU;
        tolerance 1e-05;
        relTol 0.1;
    }
    epsilon{
        solver PBiCG;
        preconditioner DILU;
        tolerance 1e-05;
        relTol 0.1;
    }
    p_rghFinal{
        $p_rgh;
        relTol 0;
    }
    UFinal{
        $U;
        relTol 0;
    }
    hFinal{
        $h;
        relTol 0;
    }
    kFinal{
        $k;
        relTol 0;
    }
    epsilonFinal{
        $epsilon;
        relTol 0;
    }
}
PIMPLE{
    nNonOrthogonalCorrectors 0;
    nCorrectors 2;
    pRefCell 0;
    pRefValue 0;
}
relaxationFactors{
    fields{
        rho 1;
        p_rgh 0.3;
    }
    equations{
        U 0.7;
        h 0.7;
        k 0.7;
        epsilon 0.7;
    }
}
